
**** 12/02/23 20:54:41 ******* PSpice Lite (March 2016) ******* ID# 10813 ****

 ** Profile: "SCHEMATIC3-sim"  [ c:\users\kellyy\desktop\p1\p1-PSpiceFiles\SCHEMATIC3\sim.sim ] 


 ****     CIRCUIT DESCRIPTION


******************************************************************************




** Creating circuit file "sim.cir" 
** WARNING: THIS AUTOMATICALLY GENERATED FILE MAY BE OVERWRITTEN BY SUBSEQUENT SIMULATIONS

*Libraries: 
* Profile Libraries :
* Local Libraries :
* From [PSPICE NETLIST] section of C:\Users\kellyy\AppData\Roaming\SPB_Data\cdssetup\OrCAD_PSpice\17.2.0\PSpice.ini file:
.lib "nomd.lib" 

*Analysis directives: 
.TRAN  0 1 0.1 50u 
.OPTIONS ADVCONV
.PROBE64 V(alias(*)) I(alias(*)) W(alias(*)) D(alias(*)) NOISE(alias(*)) 
.INC "..\SCHEMATIC3.net" 



**** INCLUDING SCHEMATIC3.net ****
* source P1
R_R6         0 N00682  0.2k TC=0,0 
D_D2         N00797 N00808 D1N4148 
C_C2         0 N00670  220n  TC=0,0 
R_R8         N11870 N00785  2k TC=0,0 
D_D1         N00808 N00797 D1N4148 
C_C1         N00641 N00797  220n  TC=0,0 
C_C3         0 N00682  10u  TC=0,0 
C_C4         N00661 N00801  10u  TC=0,0 
V_V1         N00785 0 11Vdc
R_R10         N00797 N00785  0.2k TC=0,0 
R_R3         N00661 0  3.3k TC=0,0 
Q_Q2         N00775 N00670 N00661 BC846B 
Q_Q3         N00797 N00775 N00682 BC846B 
R_R9         N00797 N05249  150k TC=0,0 
Q_Q4         N05225 N05249 N05208 BC846B 
R_R12         N05225 N00785  1k TC=0,0 
Q_Q5         N69604 N05225 N05208 BC846B 
R_R15         0 N05208  50 TC=0,0 
R_R13         N36319 N00785  1k TC=0,0 
Q_Q1         N00775 N11908 N11870 BC856B 
X_D3         N11908 N00785 awbbzx84c2v7 PARAMS:               
R_R7         0 N11908  2.2k TC=0,0 
X_R4         N00670 N00670 N51342 POT PARAMS: SET=0.5 VALUE=10k
X_R1         N00641 N00641 N52760 POT PARAMS: SET=0.5 VALUE=10k
C_C5         0 N40487  470n  TC=0,0 
R_R2         N00670 N52760  100 TC=0,0 
R_R5         N00682 N51342  100 TC=0,0 
R_R14         N69604 N36319  5k TC=0,0 
R_RL         0 N72628  400 TC=0,0 
X_R11         N00801 N00801 N00808 POT PARAMS: SET=0.5 VALUE=5k
X_R16         N36319 N36319 N40487 POT PARAMS: SET=1 VALUE=5k
R_R22         N888151 N40487  25k TC=0,0 
Q_Q6         N89199 N888151 N89133 BC856B 
R_R23         0 N89133  500k TC=0,0 
R_R24         N89199 N00785  1k TC=0,0 

**** RESUMING sim.cir ****
.END

ERROR(ORPSIM-15141): Less than 2 connections at node N72628.
